/*--------------------------------*- C++ -*----------------------------------*\
| =========                 |                                                 |
| \\      /  F ield         | OpenFOAM: The Open Source CFD Toolbox           |
|  \\    /   O peration     | Version:  2.3.1                                 |
|   \\  /    A nd           | Web:      www.OpenFOAM.org                      |
|    \\/     M anipulation  |                                                 |
\*---------------------------------------------------------------------------*/
FoamFile
{
    version     2.0;
    format      ascii;
    class       dictionary;
    location    "constant";
    object      transportProperties;
}
// * * * * * * * * * * * * * * * * * * * * * * * * * * * * * * * * * * * * * //

rho             rho     [1 -3 0 0 0 0 0]     0.0305;
mu              mu [1 -1 -1 0 0 0 0]    2.41e-5;
Cp              Cp [0 2 -2 -1 0 0 0]    1.22e4;

diffIons        diffIons  [0 2 -1 0 0 0 0]  4.2923e-6;//Maisels 3.41e-6 (Ion mobility 1.6 Jean's matlab 4.04e-6)
diffPart        diffPart  [0 2 -1 0 0 0 0]  3.41e-6;//doesn't matter

CPPIons        CPPIons  [0 0 1 0 -1 1 0]  -1.6023073e-19;
CPPPart        CPPPart  [0 0 1 0 -1 1 0]  1.6023073e-19;

kEPart        kEPart  [-1 0 1 0 1 0 0]  1.0616e15;//doesn't matter
kEIons        kEIons  [-1 0 1 0 1 0 0]  1.0616e15;//(Ion mobility 1.6 Jean's matlab 4.04e-6/(1.38e-23*293))

minQ		minQ [0 0 0 0 0 0 0]      -10;
maxQ		maxQ [0 0 0 0 0 0 0]      40;

ionRec		ionRec [0 3 -1 0 -1 0 0]      1.6e-12;//Ion recombination 1.6e-12 m^3/s (Jean - Matlab)
ionGenRate	ionGenRate [0 -3 -1 0 1 0 0]      0;//10^5s/cm^3 Hoppel and Frick 1986

KCI		KCI [0 -3 -1 0 1 0 0]      1.5E34;
exponent	exponent [0 0 0 0 0 0 0]      2;
Rexponent	Rexponent [0 0 0 0 0 0 0]      2;	
distFromLight	distFromLight [0 0 0 0 0 0 0]      0.02;	

hv		hv [0 -3 -1 0 1 0 0]      6.69;//6.69 or 4.88
Phi_inf		Phi_inf [0 -3 -1 0 1 0 0]      4.95;//6.31
r		r [0 -3 -1 0 1 0 0]      10e-9;//half diameter - use whole numbers

//hydraulic diameter for Reynolds Number calculation
dHyd            dHyd    [0 1 0 0 0 0 0]      0.025;//2*(r_outer-r_inner) 0.0064 
//laminar<2100

radSq            radSq    [0 -2 0 0 0 0 0]      7616.53136291;//inverse of radius squared
phiVolt            phiVolt    [ 1 2 -3 0 0 -1 0 ]      0.0;//volts 

//new variables for evaporation/condensation model
dpMax 		dpMax [0 1 0 0 0 0 0]     3e-6; //inlet particle size of dispersed phase
dpDisp 		dpDisp [0 1 0 0 0 0 0]     90e-9; //inlet particle size of dispersed phase
NpDisp  	NpDisp [0 -3 0 0 0 0 0]     1e10; //inlet particle size of dispersed phase
nodes 		nodes [0 0 0 0 0 0 0]	    41; //number of nodes
Tinit		Tinit [0 0 0 0 0 0 0]      1773; //geometric spacing factor*/

MWDisp		MWDisp [1 0 0 0 -1 0 0] 	0.026981539; //molecular weight (t.b.d. loop up values of HC)
rhoDisp 	rhoDisp [1 -3 0 0 0 0 0]     2700;
ACoeff 		ACoeff [1 0 -2 0 0 0 0] 	     948; //surface tension coefficient
BCoeff 		BCoeff [1 0 -2 -1 0 0 0] 	     0.202; //surface tension coefficient
CCoeff 		CCoeff [0 0 0 0 0 0 0] 	     13.07; //saturation vapor pressure coeff.
DCoeff 		DCoeff [0 0 0 1 0 0 0] 	     36373; //saturation vapor pressure coeff.
dimCorr		dimCorr [0 3 -1 0 0 0 0] 	1; //dimension correction factor gamma
monomerBal 		true;  // activate monomer balance
// ************************************************************************* //
