/*--------------------------------*- C++ -*----------------------------------*\
| =========                 |                                                 |
| \\      /  F ield         | OpenFOAM: The Open Source CFD Toolbox           |
|  \\    /   O peration     | Version:  2.3.1                                 |
|   \\  /    A nd           | Web:      www.OpenFOAM.org                      |
|    \\/     M anipulation  |                                                 |
\*---------------------------------------------------------------------------*/
FoamFile
{
    version     2.0;
    format      ascii;
    class       volScalarField;
    location    "0";
    object      S;
}
// * * * * * * * * * * * * * * * * * * * * * * * * * * * * * * * * * * * * * //

dimensions      [ 0 0 0 0 0 0 0 ];

internalField   uniform 1.001;

boundaryField
{
    inlet
    {
		type            fixedValue;
        value           uniform 1;
    }
    outlet
    {
        type            zeroGradient;
/*		type            fixedValue;*/
/*        value           $internalField;*/
    }
    sideWalls
    {
        type            empty;
    }
}


// ************************************************************************* //
