/*--------------------------------*- C++ -*----------------------------------*\
| =========                 |                                                 |
| \\      /  F ield         | OpenFOAM: The Open Source CFD Toolbox           |
|  \\    /   O peration     | Version:  2.3.1                                 |
|   \\  /    A nd           | Web:      www.OpenFOAM.org                      |
|    \\/     M anipulation  |                                                 |
\*---------------------------------------------------------------------------*/
FoamFile
{
    version     2.0;
    format      ascii;
    class       volScalarField;
    location    "0";
    object      nPart@s@;
}
// * * * * * * * * * * * * * * * * * * * * * * * * * * * * * * * * * * * * * //

dimensions      [ 0 -3 0 0 0 0 0 ];

internalField   uniform @concentration@;

boundaryField
{
    inlet
    {
        type            fixedValue;
        value           $internalField;
    }
    outlet
    {
        type            zeroGradient;
    }
    lowerWall0
    {
        type            zeroGradient;
    }
    lowerWall1
    {
        type            zeroGradient;
    }
    lowerWall2
    {
        type            zeroGradient;
    }
    upperWall0
    {
        type            zeroGradient;
    }
    upperWall1
    {
        type            zeroGradient;
    }
    upperWall2
    {
        type            zeroGradient;
    }
    frontAndBack_half0
    {
        type            cyclic;
    }
    frontAndBack_half1
    {
        type            cyclic;
    }
}


// ************************************************************************* //
