/*--------------------------------*- C++ -*----------------------------------*\
| =========                 |                                                 |
| \\      /  F ield         | OpenFOAM: The Open Source CFD Toolbox           |
|  \\    /   O peration     | Version:  2.3.1                                 |
|   \\  /    A nd           | Web:      www.OpenFOAM.org                      |
|    \\/     M anipulation  |                                                 |
\*---------------------------------------------------------------------------*/
FoamFile
{
    version     2.0;
    format      ascii;
    class       dictionary;
    location    "system";
    object      fvSchemes;
}
// * * * * * * * * * * * * * * * * * * * * * * * * * * * * * * * * * * * * * //

ddtSchemes
{
    default         steadyState;
}

gradSchemes
{
    default         Gauss linear;
    grad(p)         Gauss linear;
}

divSchemes
{
    default         none;
    div(phiAir,Uair)      Gauss upwind;
    div(phi,n)      Gauss upwind;
    div(rhoEFlux,n)     Gauss upwind;
    div(phi,T) Gauss upwind;
}

laplacianSchemes
{
    default                none;
    laplacian(mu,U)        Gauss linear corrected;
    laplacian(muAir,Uair)        Gauss linear corrected;
    laplacian((rho|A(Uair)),pAir)  Gauss linear corrected;
    laplacian(muFuel,Ufuel)        Gauss linear corrected;
    laplacian((rho|A(Ufuel)),pFuel)  Gauss linear corrected;
    laplacian(gamma,n)     Gauss linear corrected;
    laplacian(diff,n)      Gauss linear corrected;
    laplacian(k,T)      Gauss linear corrected;
}

interpolationSchemes
{
    default            linear;
}

snGradSchemes
{
    default         corrected;
}

fluxRequired
{
    default         no;
    pAir;
    pFuel;
}

// ************************************************************************* //
