/*--------------------------------*- C++ -*----------------------------------*\
| =========                 |                                                 |
| \\      /  F ield         | OpenFOAM: The Open Source CFD Toolbox           |
|  \\    /   O peration     | Version:  2.3.1                                 |
|   \\  /    A nd           | Web:      www.OpenFOAM.org                      |
|    \\/     M anipulation  |                                                 |
\*---------------------------------------------------------------------------*/
FoamFile
{
    version     2.0;
    format      ascii;
    class       dictionary;
    location    "constant";
    object      transportProperties;
}
// * * * * * * * * * * * * * * * * * * * * * * * * * * * * * * * * * * * * * //

rho             rho     [1 -3 0 0 0 0 0]     0.0305;
mu              mu [1 -1 -1 0 0 0 0]    2.41e-5;
Cp              Cp [0 2 -2 -1 0 0 0]    1.22e4;

//new variables for evaporation/condensation model
dpMax 		dpMax [0 1 0 0 0 0 0]     4.0075e-6;//3e-6; //inlet particle size of dispersed phase
dpDisp 		dpDisp [0 1 0 0 0 0 0]     90e-9; //inlet particle size of dispersed phase
NpDisp  	NpDisp [0 -3 0 0 0 0 0]     0; //1e10; //inlet particle size of dispersed phase
nodes 		nodes [0 0 0 0 0 0 0]	    21; ////number of nodes
Tinit		Tinit [0 0 0 0 0 0 0]      1773; //initial temperature (must match inlet!)

MWDisp		MWDisp [1 0 0 0 -1 0 0] 	0.026981539; //molecular weight (t.b.d. loop up values of HC)
rhoDisp 	rhoDisp [1 -3 0 0 0 0 0]     2700;
ACoeff 		ACoeff [1 0 -2 0 0 0 0] 	     948; //surface tension coefficient
BCoeff 		BCoeff [1 0 -2 -1 0 0 0] 	     0.202; //surface tension coefficient
CCoeff 		CCoeff [0 0 0 0 0 0 0] 	     13.07; //saturation vapor pressure coeff.
DCoeff 		DCoeff [0 0 0 1 0 0 0] 	     36373; //saturation vapor pressure coeff.
dimCorr		dimCorr [0 3 -1 0 0 0 0] 	1; //dimension correction factor gamma
nucleation 		true;  // activate nucleation
growth 			false;  // activate evaporation/condensation
coagulation		true;  // activate coagulation
monomerBal 		true;  // activate monomer balance
// ************************************************************************* //
